
!!>>>>>>>>>>>>>>>>>>>>>>>>>>>>>>>>>>>>>>>>>>>>>>>>>>>>>>>>>>>>>>>>>>>>>>
!! NEMO/OPA  Configuration namelist : used to overwrite defaults values defined in SHARED/namelist_ref
!!>>>>>>>>>>>>>>>>>>>>>>>>>>>>>>>>>>>>>>>>>>>>>>>>>>>>>>>>>>>>>>>>>>>>>>
!
!-----------------------------------------------------------------------
&namrun        !   parameters of the run
!-----------------------------------------------------------------------
	cn_exp = case_210422_NemoWRF  !  experiment name 
	nn_it000 = 1  !  first time step 
	nn_itend = 120  !  last  time step 
	nn_date0 = 00010101  !  date at nit_0000 (format yyyymmdd) 
   nn_leapy    =       0       !  Leap year calendar (1) or not (0)
	ln_rstart = .false.  !  start from rest (F) or from a restart file (T) 
	nn_rstctl = 0  !  restart control ==> activated only if ln_rstart=T 
	cn_ocerst_in = restart  !  suffix of ocean restart name (input) 
   cn_ocerst_indir = "."       !  directory from which to read input ocean restarts
   cn_ocerst_out = "restart"   !  suffix of ocean restart name (output)
   cn_ocerst_outdir = "."      !  directory in which to write output ocean restarts
   nn_istate   =       0       !  output the initial state (1) or not (0)
	nn_stock = 120  !  frequency of creation of a restart file 
	nn_write = 120  !  frequency of write in the output file (no iomput) 
   ln_mskland  = .false.       !  mask land points in NetCDF outputs (costly: + ~15%)
   ln_cfmeta   = .false.       !  output additional data to netCDF files required for compliance with the CF metadata standard
   ln_clobber  = .false.       !  clobber (overwrite) an existing file
/
!-----------------------------------------------------------------------
&namcfg        !   parameters of the configuration
!-----------------------------------------------------------------------
   cp_cfg      =  "orca"               !  name of the configuration
   jp_cfg      =       1               !  resolution of the configuration
   jpidta      =     362               !  1st lateral dimension ( >= jpi )
   jpjdta      =     292               !  2nd    "         "    ( >= jpj )
   jpkdta      =      50               !  number of levels      ( >= jpk )
   jpiglo      =     362               !  1st dimension of global domain --> i =jpidta
   jpjglo      =     292               !  2nd    -                  -    --> j  =jpjdta
   jperio      =       6               !  lateral cond. type (between 0 and 6)
/
!-----------------------------------------------------------------------
&namzgr        !   vertical coordinate
!-----------------------------------------------------------------------
	ln_zco = .false.  !  z-coordinate - full    steps 
	ln_zps = .true.  !  z-coordinate - partial steps 
	ln_sco = .false.  !  s- or hybrid z-s-coordinate 
	ln_isfcav = .false.  !  ice shelf cavity 
/
!-----------------------------------------------------------------------
&namzgr_sco    !   s-coordinate or hybrid z-s-coordinate
!-----------------------------------------------------------------------
/
!-----------------------------------------------------------------------
&namdom        !   space and time domain (bathymetry, mesh, timestep)
!-----------------------------------------------------------------------
   jphgr_msh   =       0               !  type of horizontal mesh
   ppglam0     =  999999.0             !  longitude of first raw and column T-point (jphgr_msh = 1)
   ppgphi0     =  999999.0             ! latitude  of first raw and column T-point (jphgr_msh = 1)
   ppe1_deg    =  999999.0             !  zonal      grid-spacing (degrees)
   ppe2_deg    =  999999.0             !  meridional grid-spacing (degrees)
   ppe1_m      =  999999.0             !  zonal      grid-spacing (degrees)
   ppe2_m      =  999999.0             !  meridional grid-spacing (degrees)
   ppsur       =  999999.0             !  ORCA r4, r2 and r05 coefficients
   ppa0        =  999999.0             ! (default coefficients)
   ppa1        =  999999.0             !
   ppkth       =      38.0             !
   ppacr       =      11.0             !
   ppdzmin     =       1.0             !  Minimum vertical spacing
   pphmax      =    5700.0             !  Maximum depth
   ldbletanh   =   .FALSE.             !  Use/do not use double tanf function for vertical coordinates
   ppa2        =  999999.0             !  Double tanh function parameters
   ppkth2      =  999999.0             !
   ppacr2      =  999999.0             !
	rn_rdt = 3600  !  time step for the dynamics 
   rn_hmin     =   -3. 
	nn_msh = 1  !  create (=1) a mesh file or not (=0) 
   nn_bathy    =    1      !  compute (=0) or read (=1) the bathymetry file
   rn_bathy    =    0.     !  value of the bathymetry. if (=0) bottom flat at jpkm1
	nn_closea = 1  !  remove (=0) or keep (=1) closed seas and lakes 
/
!-----------------------------------------------------------------------
&namsplit      !   time splitting parameters                            ("key_dynspg_ts")
!----------------------------------------------------------------------- 
   ln_bt_fw      =    .TRUE.           !  Forward integration of barotropic equations
   ln_bt_av      =    .TRUE.           !  Time filtering of barotropic variables
   ln_bt_nn_auto =    .TRUE.           !  Set nn_baro automatically to be just below
                                       !  a user defined maximum courant number (rn_bt_cmax)
   nn_baro       =    30               !  Number of iterations of barotropic mode
                                       !  during rn_rdt seconds. Only used if ln_bt_nn_auto=F
   rn_bt_cmax    =    0.8              !  Maximum courant number allowed if ln_bt_nn_auto=T 
   nn_bt_flt     =    1                !  Time filter choice
                                       !  = 0 None
                                       !  = 1 Boxcar over   nn_baro barotropic steps
                                       !  = 2 Boxcar over 2*nn_baro     "        "
/
!-----------------------------------------------------------------------
&namcrs        !   Grid coarsening for dynamics output and/or
               !   passive tracer coarsened online simulations
!-----------------------------------------------------------------------
/
!-----------------------------------------------------------------------
&namtsd    !   data : Temperature  & Salinity
!-----------------------------------------------------------------------
!          !  file name                            ! frequency (hours) ! variable  ! time interp. !  clim  ! 'yearly'/ ! weights  ! rotation ! land/sea mask !
!          !                                       !  (if <0  months)  !   name    !   (logical)  !  (T/F) ! 'monthly' ! filename ! pairing  ! filename      !
   sn_tem  = 'data_1m_temperature_nomask'          ,         -1        ,'votemper' ,    .true.    , .true. , 'yearly'  ,    ''    ,    ''    ,    ''
   sn_sal  = 'data_1m_salinity_nomask'             ,         -1        ,'vosaline' ,    .true.    , .true. , 'yearly'  ,    ''    ,    ''    ,    ''
   ln_tsd_tradmp = .false.  !  damping of ocean T & S toward T &S input data (T) or not (F)
/
!-----------------------------------------------------------------------
&namsbc        !   Surface Boundary Condition (surface module)
!-----------------------------------------------------------------------
	nn_fsbc = 1  !  frequency of surface boundary condition computation 
	ln_cpl = .true.  !  atmosphere coupled   formulation 
	ln_blk_core = .false.  !  CORE bulk formulation 
	nn_ice = 0  !  =0 no ice boundary condition from LIM model 
	nn_ice_embd = 0  !  ice shelf melting/freezing, 0 =no isf 
	nn_fwb = 0  !  FreshWater Budget: =0 unchecked, =1 global mean of e-p-r set to zero at each time step 
	ln_rnf = .true.  !  runoffs 
	ln_ssr = .false.  !  Sea Surface Restoring on T and/or S 
/
!-----------------------------------------------------------------------
&namsbc_core   !   namsbc_core  CORE bulk formulae
!-----------------------------------------------------------------------
!              !   file name                  ! frequency (hours) ! variable   ! time interpol. !  clim   ! 'yearly'/ ! weights              ! rotation !
!              !                              !  (if <0  months)  !   name     !    (logical)   !  (T/F)  ! 'monthly' ! filename             ! pairing  !
   sn_wndi     = 'u_10.15JUNE2009_fill'       ,         6         , 'U_10_MOD',   .true.     ,  .true. , 'yearly'  , 'ORCA1_coreII_weights_bicubic.nc'  , 'U1'
   sn_wndj     = 'v_10.15JUNE2009_fill'       ,         6         , 'V_10_MOD',   .true.     ,  .true. , 'yearly'  , 'ORCA1_coreII_weights_bicubic.nc'  , 'V1'
   sn_qsr      = 'ncar_rad.15JUNE2009_fill'   ,        24         , 'SWDN_MOD',   .false.    ,  .true. , 'yearly'  , 'ORCA1_coreII_weights_bilinear.nc' , ''
   sn_qlw      = 'ncar_rad.15JUNE2009_fill'   ,        24         , 'LWDN_MOD',   .true.     ,  .true. , 'yearly'  , 'ORCA1_coreII_weights_bilinear.nc' , ''
   sn_tair     = 't_10.15JUNE2009_fill'       ,         6         , 'T_10_MOD',   .false.    ,  .true. , 'yearly'  , 'ORCA1_coreII_weights_bilinear.nc' , ''
   sn_humi     = 'q_10.15JUNE2009_fill'       ,         6         , 'Q_10_MOD',   .false.    ,  .true. , 'yearly'  , 'ORCA1_coreII_weights_bilinear.nc' , ''
   sn_prec     = 'ncar_precip.15JUNE2009_fill',        -1         , 'PRC_MOD1',   .true.     ,  .true. , 'yearly'  , 'ORCA1_coreII_weights_bilinear.nc' , ''
   sn_snow     = 'ncar_precip.15JUNE2009_fill',        -1         , 'SNOW'    ,   .true.     ,  .true. , 'yearly'  , 'ORCA1_coreII_weights_bilinear.nc' , ''

   cn_dir      = './'      !  root directory for the location of the bulk files
   ln_taudif   = .false.   !  HF tau contribution: use "mean of stress module - module of the mean stress" data
   rn_zqt      = 10.        !  Air temperature and humidity reference height (m)
   rn_zu       = 10.        !  Wind vector reference height (m)
   rn_pfac     = 1.        !  multiplicative factor for precipitation (total & snow)
   rn_efac     = 1.        !  multiplicative factor for evaporation (0. or 1.)
   rn_vfac     = 0.        !  multiplicative factor for ocean/ice velocity
/
!-----------------------------------------------------------------------
&namtra_qsr    !   penetrative solar radiation
!-----------------------------------------------------------------------
   sn_chl      ='chlorophyll',  -1  , 'CHLA' , .true. , .true. , 'yearly' , '' , '' , ''

   cn_dir      = './'      !  root directory for the location of the runoff files
   ln_traqsr   = .true.    !  Light penetration (T) or not (F)
   ln_qsr_rgb  = .true.    !  RGB (Red-Green-Blue) light penetration
   ln_qsr_2bd  = .false.   !  2 bands              light penetration
   ln_qsr_bio  = .false.   !  bio-model light penetration
   nn_chldta   =      1    !  RGB : 2D Chl data (=1), 3D Chl data (=2) or cst value (=0)
   rn_abs      =   0.58    !  RGB & 2 bands: fraction of light (rn_si1)
   rn_si0      =   0.35    !  RGB & 2 bands: shortess depth of extinction
   rn_si1      =   23.0    !  2 bands: longest depth of extinction
   ln_qsr_ice  = .false.   !  light penetration for ice-model LIM3
/
/
!-----------------------------------------------------------------------
&namsbc_rnf    !   runoffs namelist surface boundary condition
!-----------------------------------------------------------------------
!              !  file name           ! frequency (hours) ! variable  ! time interp. !  clim  ! 'yearly'/ ! weights  ! rotation ! land/sea mask !
!              !                      !  (if <0  months)  !   name    !   (logical)  !  (T/F) ! 'monthly' ! filename ! pairing  ! filename      !
   sn_rnf      = 'runoff_core_monthly.nc',        -1         , 'sorunoff',   .true.     , .true. , 'yearly'  , ''       , ''       , ''
   sn_cnf      = 'runoff_core_monthly.nc',         0         , 'socoeff' ,   .false.    , .true. , 'yearly'  , ''       , ''       , ''
   sn_s_rnf    = 'runoffs'            ,        24         , 'rosaline',   .true.     , .true. , 'yearly'  , ''       , ''       , ''
   sn_t_rnf    = 'runoffs'            ,        24         , 'rotemper',   .true.     , .true. , 'yearly'  , ''       , ''       , ''
   sn_dep_rnf  = 'runoffs'            ,         0         , 'rodepth' ,   .false.    , .true. , 'yearly'  , ''       , ''       , ''

	ln_rnf_mouth = .false.  !  specific treatment at rivers mouths 
	ln_rnf_depth = .true.  !  compute depth propagation of runoff (uses rn_hrnf) 
   rn_hrnf = 20.0            !  depth over which enhanced vertical mixing and runoff spread is used in CESM
   ln_rnf_tem   = .false.    !  read in temperature information for runoff
   ln_rnf_sal   = .false.    !  read in salinity information for runoff
   ln_rnf_depth_ini = .false. !  compute depth at initialisation from runoff file
   rn_rnf_max   = 0.05       !  max value of the runoff climatology over global domain ( if ln_rnf_depth_ini = .true )
   rn_dep_max = 150.         !  depth over which runoffs is spread ( ln_rnf_depth_ini = .true )
   nn_rnf_depth_file = 0     ! create (=1) a runoff depth file or not (=0)
	rn_rnf_bnd = 0.0  !  max allowed runoff (redistribute otherwise) [kg/m2/s] 
/
!-----------------------------------------------------------------------
&namsbc_apr    !   Atmospheric pressure used as ocean forcing or in bulk
!-----------------------------------------------------------------------
/
!-----------------------------------------------------------------------
&namsbc_ssr    !   surface boundary condition : sea surface restoring
!-----------------------------------------------------------------------
!              !   file name  ! frequency (hours) ! variable   ! time interpol. !  clim   ! 'yearly'/ ! weights  ! rotation !
!              !              !  (if <0  months)  !   name     !    (logical)   !  (T/F)  ! 'monthly' ! filename ! pairing  !
   sn_sss      = 'sss_absolute_salinity_WOA13_decav_Reg1L75_clim', -1. , 'sosaline', .true. , .true. , 'yearly' , 'weights_WOA13d1_2_eorca1_bilinear.nc' , ''
   nn_sstr     =     0     !  add a retroaction term in the surface heat       flux (=1) or not (=0)
   nn_sssr     =     0     !  add a damping     term in the surface freshwater flux (=2)
   rn_deds     = -136.9863 !  magnitude of the damping on salinity   [mm/day]
   ln_sssr_bnd =  .false.  !  flag to bound erp term (associated with nn_sssr=2)
   rn_sssr_bnd =   4.e0    !  ABS(Max/Min) value of the damping erp term [mm/day]
   nn_icedmp   =   0       !  Control of surface restoration under ice nn_icedmp
/
!-----------------------------------------------------------------------
&namsbc_alb    !   albedo parameters
!-----------------------------------------------------------------------
/
!-----------------------------------------------------------------------
&namberg       !   iceberg parameters
!-----------------------------------------------------------------------
      ln_icebergs              = .false.
      ln_bergdia               = .false.              ! Calculate budgets
      nn_verbose_level         = 0                    ! Turn on more verbose output if level > 0
      nn_verbose_write         = 120                  ! Timesteps between verbose messages
      nn_sample_rate           = 1                    ! Timesteps between sampling for trajectory storage
                                                      ! Initial mass required for an iceberg of each class
      rn_initial_mass          = 8.8e7, 4.1e8, 3.3e9, 1.8e10, 3.8e10, 7.5e10, 1.2e11, 2.2e11, 3.9e11, 7.4e11
                                                      ! Proportion of calving mass to apportion to each class  
      rn_distribution          = 0.24, 0.12, 0.15, 0.18, 0.12, 0.07, 0.03, 0.03, 0.03, 0.02
                                                      ! Ratio between effective and real iceberg mass (non-dim)
                                                      ! i.e. number of icebergs represented at a point         
      rn_mass_scaling          = 2000, 200, 50, 20, 10, 5, 2, 1, 1, 1
                                                      ! thickness of newly calved bergs (m)
      rn_initial_thickness     = 40., 67., 133., 175., 250., 250., 250., 250., 250., 250.
      rn_rho_bergs             = 850.                 ! Density of icebergs
      rn_LoW_ratio             = 1.5                  ! Initial ratio L/W for newly calved icebergs
      ln_operator_splitting    = .true.               ! Use first order operator splitting for thermodynamics
      rn_bits_erosion_fraction = 0.                   ! Fraction of erosion melt flux to divert to bergy bits
      rn_sicn_shift            = 0.                   ! Shift of sea-ice concn in erosion flux (0<sicn_shift<1)
      ln_passive_mode          = .false.              ! iceberg - ocean decoupling   
      nn_test_icebergs         =   8                  ! Create test icebergs of this class (-1 = no)
                                                      ! Put a test iceberg at each gridpoint in box (lon1,lon2,lat1,lat2)
      !rn_test_box              = 108.0,  116.0, -66.0, -58.0
      rn_test_box              = -180.0,  180.0,  70.0,  90.0     !
      rn_speed_limit           = 0.                   ! CFL speed limit for a berg   

!              ! file name ! frequency (hours) !   variable   ! time interp.   !  clim   ! 'yearly'/ ! weights  ! rotation ! land/sea mask !
!              !           !  (if <0  months)  !     name     !   (logical)    !  (T/F ) ! 'monthly' ! filename ! pairing  ! filename      !
      sn_icb =  'calving' ,       -1           , 'calvingmask',  .true.        , .true.  , 'yearly'  , ''       , ''       , ''
   
      cn_dir = './' 
/
!-----------------------------------------------------------------------
&namlbc        !   lateral momentum boundary condition
!-----------------------------------------------------------------------
   rn_shlat    =    0.0    !  shlat = 0  !  0 < shlat < 2  !  shlat = 2  !  2 < shlat
                           !  free slip  !   partial slip  !   no slip   ! strong slip
/
!-----------------------------------------------------------------------
&namcla        !   cross land advection
!-----------------------------------------------------------------------
/
!-----------------------------------------------------------------------
&nam_tide      !   tide parameters (#ifdef key_tide)
!-----------------------------------------------------------------------
   ln_tide_pot   = .true.   !  use tidal potential forcing
   clname(1)     =   'M2'   !  name of constituent
   clname(2)     =   'S2'
   clname(3)     =   'N2'
   clname(4)     =   'K1'
   clname(5)     =   'O1'
   clname(6)     =   'Q1'
   clname(7)     =   'M4'
   clname(8)     =   'K2'
   clname(9)     =   'P1'
   clname(10)    =   'Mf'
   clname(11)    =   'Mm'
/
!-----------------------------------------------------------------------
&nambfr        !   bottom friction
!-----------------------------------------------------------------------
   nn_bfr      =    2      !  type of bottom friction :   = 0 : free slip,  = 1 : linear friction
   ln_bfrimp   =  .true.   !  implicit bottom friction (requires ln_zdfexp = .false. if true)
   rn_bfri1    =    4.e-4  !  bottom drag coefficient (linear case)
   rn_tfri1    =    4.e-4  !  top drag coefficient (linear case)
   rn_bfeb2    =    2.5e-3 !  bottom turbulent kinetic energy background  (m2/s2)
   rn_bfri2    =    1.e-3  !  bottom drag coefficient (non linear case). Minimum coeft if ln_loglayer=T
   rn_bfri2_max =   1.e-1  !  max. bottom drag coefficient (non linear case and ln_loglayer=T)
   rn_tfri2    =    2.5e-3 !  top drag coefficient (non linear case). Minimum coeft if ln_loglayer=T
   rn_tfri2_max =   1.e-1  !  max. top drag coefficient (non linear case and ln_loglayer=T)
/
!-----------------------------------------------------------------------
&nambbc        !   bottom temperature boundary condition
!-----------------------------------------------------------------------
   sn_qgh      ='geothermal_heating.nc',  -12.  , 'gh_flux'    ,   .false.     , .true. , 'yearly'  , ''       , ''       , ''
   !
   cn_dir      = './'      !  root directory for the location of the runoff files
   ln_trabbc   = .true.    !  Apply a geothermal heating at the ocean bottom
   nn_geoflx   =   2       !  geothermal heat flux: = 0 no flux
/
!-----------------------------------------------------------------------
&nambbl        !   bottom boundary layer scheme
!-----------------------------------------------------------------------
/
!-----------------------------------------------------------------------
&nameos        !   ocean physical parameters
!-----------------------------------------------------------------------
nn_eos      =  0     !  type of equation of state and Brunt-Vaisala frequency
                                 !  =-1, TEOS-10
                                 !  = 0, EOS-80
                                 !  = 1, S-EOS   (simplified eos)
ln_useCT    = .false.  ! use of Conservative Temp. ==> surface CT converted in Pot. Temp. in sbcssm
/
!-----------------------------------------------------------------------
&namtra_adv    !   advection scheme for tracer
!-----------------------------------------------------------------------
   ln_traadv_tvd    =  .true.   !  TVD scheme
   ln_traadv_ubs    =  .false.  !  UBS scheme
/
!-----------------------------------------------------------------------
&namtra_adv_mle !  mixed layer eddy parametrisation (Fox-Kemper param)
!-----------------------------------------------------------------------
   ln_mle    = .false.      ! (T) use the Mixed Layer Eddy (MLE) parameterisation
/
!----------------------------------------------------------------------------------
&namtra_ldf    !   lateral diffusion scheme for tracers
!----------------------------------------------------------------------------------
   !                       !  Operator type:
   ln_traldf_lap    =  .true.   !  laplacian operator
   ln_traldf_bilap  =  .false.  !  bilaplacian operator
   !                       !  Direction of action:
   ln_traldf_level  =  .false.  !  iso-level
   ln_traldf_hor    =  .false.  !  horizontal (geopotential)   (needs "key_ldfslp" when ln_sco=T)
   ln_traldf_iso    =  .true.   !  iso-neutral                 (needs "key_ldfslp")
   !                       !  Griffies parameters              (all need "key_ldfslp")
   ln_traldf_grif   =  .false.  !  griffies skew flux formulation       (require "key_ldfslp")
   ln_traldf_gdia   =  .false.  !  griffies operator strfn diagnostics  (require "key_ldfslp")
   ln_triad_iso     =  .false.  !  pure lateral mixing in ML
   ln_botmix_grif   =  .false.  !  griffies operator with lateral mixing on bottom (require "key_ldfslp")
   rn_aht_0         =  1000.    !  horizontal eddy diffusivity for tracers [m2/s]
   rn_aeiv_0        =  1000.    !  eddy induced velocity coefficient [m2/s]    (require "key_traldf_eiv")
   rn_ahtb_0        =     0.    !  background eddy diffusivity for ldf_iso [m2/s]
   rn_aht_fac       =     6.    !  Scaling factor for eddy diffusivity in ldftra_c2d (CESM)
/
!-----------------------------------------------------------------------
&namtra_dmp    !   tracer: T & S newtonian damping
!-----------------------------------------------------------------------
   ln_tradmp   =  .false.  !  add a damping termn (T) or not (F)
/
!-----------------------------------------------------------------------
&namdyn_adv    !   formulation of the momentum advection
!-----------------------------------------------------------------------
   ln_dynadv_vec = .true.  !  vector form (T) or flux form (F)
   ln_dynadv_cen2= .false. !  flux form - 2nd order centered scheme
   ln_dynadv_ubs = .false. !  flux form - 3rd order UBS      scheme
   nn_dynkeg     = 0       !  scheme for grad(KE): =0  C2  ; =1  Hollingsworth correction
/
!-----------------------------------------------------------------------
&nam_vvl    !   vertical coordinate options
!-----------------------------------------------------------------------
/
!-----------------------------------------------------------------------
&namdyn_vor    !   option of physics/algorithm (not control by CPP keys)
!-----------------------------------------------------------------------
   ln_dynvor_een = .false.  !  energy & enstrophy scheme
   ln_dynvor_een_old = .true.  !  energy & enstrophy scheme - original formulation
/
!-----------------------------------------------------------------------
&namdyn_hpg    !   Hydrostatic pressure gradient option
!-----------------------------------------------------------------------
   ln_hpg_zps  = .true.    !  z-coordinate - partial steps (interpolation)
   ln_hpg_sco  = .false.   !  s-coordinate (standard jacobian formulation)
   ln_dynhpg_imp = .false. !  time stepping: semi-implicit time scheme  (T)
                           !           centered      time scheme  (F)
/
!-----------------------------------------------------------------------
&namdyn_ldf    !   lateral diffusion on momentum
!-----------------------------------------------------------------------
   !                       !  Type of the operator :
   ln_dynldf_lap    =  .true.   !  laplacian operator
   ln_dynldf_bilap  =  .false.  !  bilaplacian operator
   !                       !  Direction of action  :
   ln_dynldf_level  =  .false.  !  iso-level
   ln_dynldf_hor    =  .true.   !  horizontal (geopotential)            (require "key_ldfslp" in s-coord.)
   ln_dynldf_iso    =  .false.  !  iso-neutral                          (require "key_ldfslp")
   !                       !  Coefficient
   rn_ahm_0_lap     = 10000.    !  horizontal laplacian eddy viscosity   [m2/s]
   rn_ahmb_0        =     0.    !  background eddy viscosity for ldf_iso [m2/s]
   rn_ahm_0_blp     =     0.    !  horizontal bilaplacian eddy viscosity [m4/s]
/
!-----------------------------------------------------------------------
&namzdf        !   vertical physics
!-----------------------------------------------------------------------
   rn_avm0     =   1.0e-4  !  vertical eddy viscosity   [m2/s]          (background Kz if not "key_zdfcst")
   rn_avt0     =   1.0e-5  !  vertical eddy diffusivity [m2/s]          (background Kz if not "key_zdfcst")
   nn_avb      =    0      !  profile for background avt & avm (=1) or not (=0)
   nn_havtb    =    1      !  horizontal shape for avtb (=1) or not (=0)
   ln_zdfevd   = .true.    !  enhanced vertical diffusion (evd) (T) or not (F)
	nn_evdm = 1  !  evd apply on tracer (=0) or on tracer and momentum (=1) 
	rn_avevd = 10.0  !  evd mixing coefficient [m2/s] 
   ln_zdfnpc   = .false.   !  Non-Penetrative Convective algorithm (T) or not (F)
   nn_npc      =    1            !  frequency of application of npc
   nn_npcp     =  365            !  npc control print frequency
   ln_zdfexp   = .false.   !  time-stepping: split-explicit (T) or implicit (F) time stepping
   nn_zdfexp   =    3            !  number of sub-timestep for ln_zdfexp=T
/
!-----------------------------------------------------------------------
&namzdf_tke    !   turbulent eddy kinetic dependent vertical diffusion  ("key_zdftke")
!-----------------------------------------------------------------------
   rn_ediff    =   0.1     !  coef. for vertical eddy coef. (avt=rn_ediff*mxl*sqrt(e) )
   rn_ediss    =   0.7     !  coef. of the Kolmogoroff dissipation
   rn_ebb      =  60.0     !  coef. of the surface input of tke (=67.83 suggested when ln_mxl0=T)
   rn_emin     =   1.e-6   !  minimum value of tke [m2/s2]
   rn_emin0    =   1.e-4   !  surface minimum value of tke [m2/s2]
   rn_bshear   =   1.e-20  ! background shear (>0) currently a numerical threshold (do not change it)
   nn_mxl      =   3       !  mixing length: = 0 bounded by the distance to surface and bottom
                           !                 = 1 bounded by the local vertical scale factor
                           !                 = 2 first vertical derivative of mixing length bounded by 1
                           !                 = 3 as =2 with distinct disspipative an mixing length scale
   nn_pdl      =   1       !  Prandtl number function of richarson number (=1, avt=pdl(Ri)*avm) or not (=0, avt=avm)
   ln_mxl0     = .true.    !  surface mixing length scale = F(wind stress) (T) or not (F)
   rn_mxl0     =   0.01    !  surface  buoyancy lenght scale minimum value
   ln_lc       = .true.    !  Langmuir cell parameterisation (Axell 2002)
   rn_lc       =   0.15    !  coef. associated to Langmuir cells
   nn_etau     =   1       !  penetration of tke below the mixed layer (ML) due to internal & intertial waves
                           !        = 0 no penetration
                           !        = 1 add a tke source below the ML
                           !        = 2 add a tke source just at the base of the ML
                           !        = 3 as = 1 applied on HF part of the stress    ("key_coupled")
   rn_efr      =   0.05    !  fraction of surface tke value which penetrates below the ML (nn_etau=1 or 2)
   nn_htau     =   1       !  type of exponential decrease of tke penetration below the ML
                           !        = 0  constant 10 m length scale
                           !        = 1  0.5m at the equator to 30m poleward of 40 degrees
/
!-----------------------------------------------------------------------
&namzdf_ddm    !   double diffusive mixing parameterization             ("key_zdfddm")
!-----------------------------------------------------------------------
/
!-----------------------------------------------------------------------
&namzdf_tmx    !   tidal mixing parameterization                        ("key_zdftmx")
!-----------------------------------------------------------------------
/
!-----------------------------------------------------------------------
&namsol        !   elliptic solver / island / free surface